Circuit: * C:\Users\Ordi\Documents\cours\4A\EE470\Accordeur\github\EE410_Projet_Accordeur\Simulation\nouveauMontage\Draft4.asc

Direct Newton iteration for .op point succeeded.

Date: Sun Nov 26 22:12:44 2023
Total elapsed time: 0.450 seconds.

tnom = 27
temp = 27
method = modified trap
totiter = 51247
traniter = 51205
tranpoints = 14755
accept = 10369
rejected = 4386
matrix size = 12
fillins = 5
solver = Normal
Avg thread counts: 1.0/1.1/1.1/1.0
Matrix Compiler1:      44 opcodes  0.4/[0.3]/0.3
Matrix Compiler2: 1.08 KB object code size  0.2/0.3/[0.1]

