Circuit: * C:\Users\Ordi\Documents\cours\4A\EE470\Accordeur\github\EE410_Projet_Accordeur\Simulation\nouveauMontage\Draft3.asc

Direct Newton iteration for .op point succeeded.

Date: Sun Nov 26 21:36:05 2023
Total elapsed time: 0.024 seconds.

tnom = 27
temp = 27
method = trap
totiter = 3
traniter = 0
tranpoints = 0
accept = 0
rejected = 0
matrix size = 9
fillins = 2
solver = Normal
Avg thread counts: 12.0/0.0/12.0/2.9
Matrix Compiler1:      24 opcodes
Matrix Compiler2: 709 bytes object code size
