Circuit: * C:\Users\Ordi\Documents\cours\4A\EE470\Accordeur\github\EE410_Projet_Accordeur\Simulation\SallenKey\SallenKey.asc

Direct Newton iteration for .op point succeeded.

Date: Sun Nov 26 22:19:02 2023
Total elapsed time: 0.056 seconds.

tnom = 27
temp = 27
method = trap
totiter = 42
traniter = 0
tranpoints = 0
accept = 0
rejected = 0
matrix size = 12
fillins = 5
solver = Normal
Avg thread counts: 12.0/0.0/12.0/2.8
Matrix Compiler1:      44 opcodes
Matrix Compiler2:      85 opcodes
